232
Fe2 H40 S4 N4 O28
Fe    0.000000    0.000000    0.000000
Fe   -2.673820    0.000000    8.956431
Fe    0.000000   12.571182    0.000000
Fe   -2.673820   12.571182    8.956431
Fe    6.380345    0.000000    0.000000
Fe    3.706525    0.000000    8.956431
Fe    6.380345   12.571182    0.000000
Fe    3.706525   12.571182    8.956431
Fe   -1.336910    6.285591    4.478216
Fe    5.043435    6.285591    4.478216
 H    2.599093    4.110575    8.377703
 H   -0.229478   10.396167    5.056945
 H    1.107432    8.460607    0.578729
 H    3.936003    2.175016    3.899487
 H    1.725760    3.703546    6.961046
 H    0.643855    9.989137    6.473601
 H    1.980765    8.867637    1.995386
 H    3.062670    2.582045    2.482830
 H    0.929008    4.176876    8.367008
 H    1.440606   10.462467    5.067639
 H    2.777517    8.394306    0.589423
 H    2.265918    2.108715    3.888793
 H    1.824510    5.324310    7.482991
 H    0.545105   11.609902    5.951656
 H    1.882015    7.246871    1.473440
 H    3.161420    0.961281    3.004775
 H    2.184488    1.116899    6.946384
 H    0.185127    7.402491    6.488263
 H    1.522037   11.454283    2.010047
 H    3.521398    5.168692    2.468169
 H    3.709113    1.530780    6.681336
 H   -1.339499    7.816371    6.753311
 H   -0.002588   11.040401    2.275095
 H    5.046023    4.754811    2.203121
 H   -0.335991    1.267414    2.428966
 H    5.379426    7.553005    2.049249
 H    4.042516   11.303768    6.527465
 H   -1.672901    5.018177    6.907182
 H   -0.347401    2.390549    1.311320
 H    5.390836    8.676140    3.166896
 H    4.053926   10.180634    7.645111
 H   -1.684311    3.895043    5.789536
 H    3.990256   11.762465    0.943936
 H    1.053178    5.476874    3.534279
 H   -0.283732    0.808717    8.012495
 H    2.653346    7.094308    5.422152
 H    1.689882   10.728460    8.746430
 H    0.679732    4.442870    4.688217
 H    2.016642    1.842722    0.210001
 H    3.026793    8.128313    4.268214
 S    0.071061    1.698844    5.298320
 S    2.298553    7.984435    8.136327
 S    3.635463   10.872338    3.658111
 S    1.407972    4.586747    0.820105
 N    1.774467    4.325253    7.787975
 N    0.595147   10.610845    5.646672
 N    1.932057    8.245929    1.168456
 N    3.111377    1.960338    3.309760
 O    1.023657    2.862797    5.298992
 O    1.345957    9.148389    8.135655
 O    2.682867    9.708385    3.657439
 O    2.360567    3.422794    0.820776
 O    0.181903    0.961004    4.025137
 O    4.861532    7.246595    0.453079
 O    3.524622   11.610178    4.931294
 O   -1.155007    5.324587    8.503352
 O    0.467798    0.786453    6.430037
 O    1.901817    7.072044    7.004610
 O    3.238727   11.784729    2.526394
 O    1.804708    5.499138    1.951821
 O   -1.329048    2.193319    5.512854
 O    3.698662    8.478910    7.921793
 O    5.035572   10.377863    3.443578
 O    0.007862    4.092272    1.034638
 O    3.035341    1.373314    7.384846
 O   -0.665726    7.658905    6.049801
 O    0.671184   11.197869    1.571585
 O    4.372251    4.912277    2.906631
 O    5.771697    1.451406    1.490386
 O   -0.728262    7.736997    2.987830
 O   -2.065173   11.119777    7.466045
 O    4.434787    4.834185    5.968602
 O    4.472600   11.671224    0.081736
 O    0.570835    5.385633    4.396479
 O   -0.766075    0.899958    8.874695
 O    3.135690    7.185549    4.559952
 O   -1.907745   -0.899959    0.081736
 O   -0.671184    1.373314   -1.571585
 O   -0.608648    1.451406    1.490386
 O    0.608648   -1.451406   -1.490386
 O    0.671184   -1.373313    1.571585
 O    1.907745    0.899958   -0.081737
 O   -4.581565   -0.899959    9.038168
 O   -3.345004    1.373314    7.384846
 O   -3.282468    1.451406   10.446817
 O   -2.065173   -1.451406    7.466045
 O   -2.002636   -1.373313   10.528016
 O   -1.907745   11.671224    0.081736
 O   -0.671184   13.944496   -1.571585
 O   -0.608648   14.022588    1.490386
 O    0.608648   11.119777   -1.490386
 O    1.907745   13.471141   -0.081737
 O   -4.581565   11.671224    9.038168
 O   -3.345004   13.944496    7.384846
 O   -3.282468   14.022588   10.446817
 O   -2.002636   11.197869   10.528016
 O   -0.766075   13.471141    8.874695
 O    4.472600   -0.899959    0.081736
 O    5.709161    1.373314   -1.571585
 O    6.988992   -1.451406   -1.490386
 O    7.051529   -1.373313    1.571585
 O    8.288090    0.899958   -0.081737
 O    1.798780   -0.899959    9.038168
 O    3.097877    1.451406   10.446817
 O    4.315172   -1.451406    7.466045
 O    4.377708   -1.373313   10.528016
 O    5.614270    0.899958    8.874695
 O    5.709161   13.944496   -1.571585
 O    5.771697   14.022588    1.490386
 O    6.988992   11.119777   -1.490386
 O    7.051529   11.197869    1.571585
 O    8.288090   13.471141   -0.081737
 O    1.798780   11.671224    9.038168
 O    3.035341   13.944496    7.384846
 O    3.097877   14.022588   10.446817
 O    4.315172   11.119777    7.466045
 O    4.377708   11.197869   10.528016
 O    5.614270   13.471141    8.874695
 O   -2.008094    4.912277    2.906631
 O   -1.945558    4.834185    5.968602
 O   -3.244655    7.185549    4.559952
 O    6.951180    5.385633    4.396479
 O    5.652082    7.736997    2.987830
 O    5.714619    7.658905    6.049801
 O    2.187712    7.246595    9.409511
 O    1.518813    5.324587   -0.453079
 H   -1.522037    1.116899   -2.010047
 H   -4.195857    1.116899    6.946384
 H   -1.522037   13.688082   -2.010047
 H   -4.195857   13.688082    6.946384
 H    4.858308    1.116899   -2.010047
 H    4.858308   13.688082   -2.010047
 H    2.184488   13.688082    6.946384
 H    6.565472    7.402491    6.488263
 H    1.522037   -1.116899    2.010047
 H   -1.151783   -1.116899   10.966478
 H   -1.151783   11.454283   10.966478
 H    7.902382   -1.116899    2.010047
 H    5.228561   -1.116899   10.966478
 H    7.902382   11.454283    2.010047
 H    5.228561   11.454283   10.966478
 H   -2.858947    5.168692    2.468169
 H    0.002589    1.530780   -2.275095
 H   -2.671232    1.530780    6.681336
 H    0.002589   14.101963   -2.275095
 H   -2.671232   14.101963    6.681336
 H    6.382934    1.530780   -2.275095
 H    6.382934   14.101963   -2.275095
 H    3.709113   14.101963    6.681336
 H    5.040846    7.816371    6.753311
 H   -0.002588   -1.530781    2.275095
 H   -2.676409   -1.530781   11.231526
 H   -2.676409   11.040401   11.231526
 H    6.377757   -1.530781    2.275095
 H    3.703936   -1.530781   11.231526
 H    6.377757   11.040401    2.275095
 H    3.703936   11.040401   11.231526
 H   -1.334321    4.754811    2.203121
 H   -3.009811    1.267414   11.385398
 H   -0.335991   13.838596    2.428966
 H   -3.009811   13.838596   11.385398
 H    6.044354    1.267414    2.428966
 H    3.370533    1.267414   11.385398
 H    6.044354   13.838596    2.428966
 H    3.370533   13.838596   11.385398
 H   -1.000919    7.553005    2.049249
 H    0.335991   -1.267414   -2.428966
 H   -2.337829   -1.267414    6.527465
 H    0.335991   11.303768   -2.428966
 H   -2.337829   11.303768    6.527465
 H    6.716336   -1.267414   -2.428966
 H    4.042516   -1.267414    6.527465
 H    6.716336   11.303768   -2.428966
 H    4.707444    5.018177    6.907182
 H   -3.021222    2.390549   10.267752
 H   -0.347401   14.961731    1.311320
 H   -3.021222   14.961731   10.267752
 H    6.032944    2.390549    1.311320
 H    3.359123    2.390549   10.267752
 H    6.032944   14.961731    1.311320
 H    3.359123   14.961731   10.267752
 H   -0.989509    8.676140    3.166896
 H    0.347401   -2.390549   -1.311320
 H   -2.326419   -2.390549    7.645111
 H    0.347401   10.180634   -1.311320
 H   -2.326419   10.180634    7.645111
 H    6.727746   -2.390549   -1.311320
 H    4.053926   -2.390549    7.645111
 H    6.727746   10.180634   -1.311320
 H    4.696033    3.895043    5.789536
 H   -2.390089   -0.808717    0.943936
 H   -5.063909   -0.808717    9.900368
 H   -2.390089   11.762465    0.943936
 H   -5.063909   11.762465    9.900368
 H    3.990256   -0.808717    0.943936
 H    1.316436   -0.808717    9.900368
 H    1.316436   11.762465    9.900368
 H    7.433523    5.476874    3.534279
 H    2.390089    0.808717   -0.943936
 H    2.390089   13.379899   -0.943936
 H   -0.283732   13.379899    8.012495
 H    8.770433    0.808717   -0.943936
 H    6.096613    0.808717    8.012495
 H    8.770433   13.379899   -0.943936
 H    6.096613   13.379899    8.012495
 H   -3.726999    7.094308    5.422152
 H   -2.016642   -1.842722   -0.210001
 H   -4.690463   -1.842722    8.746430
 H   -2.016642   10.728460   -0.210001
 H   -4.690463   10.728460    8.746430
 H    4.363703   -1.842722   -0.210001
 H    1.689882   -1.842722    8.746430
 H    4.363703   10.728460   -0.210001
 H    7.060077    4.442870    4.688217
 H   -0.657178    1.842722    9.166432
 H    2.016642   14.413904    0.210001
 H   -0.657178   14.413904    9.166432
 H    8.396987    1.842722    0.210001
 H    5.723166    1.842722    9.166432
 H    8.396987   14.413904    0.210001
 H    5.723166   14.413904    9.166432
 H   -3.353552    8.128313    4.268214
