31
Cu Zn Sn S                               
Cu    0.000000    0.000000    0.000000
Cu    0.000000    0.000000   10.934153
Cu    0.000000    5.468781    0.000000
Cu    0.000000    5.468781   10.934153
Cu    5.468781    0.000000    0.000000
Cu    5.468781    0.000000   10.934153
Cu    5.468781    5.468781    0.000000
Cu    5.468781    5.468781   10.934153
Cu    0.000000    2.734390    2.733538
Cu    5.468781    2.734390    2.733538
Cu    2.734390    2.734390    5.467076
Cu    2.734390    0.000000    8.200615
Cu    2.734390    5.468781    8.200615
Zn    2.734390    0.000000    2.733538
Zn    2.734390    5.468781    2.733538
Zn    0.000000    2.734390    8.200615
Zn    5.468781    2.734390    8.200615
Sn    2.734390    2.734390    0.000000
Sn    2.734390    2.734390   10.934153
Sn    0.000000    0.000000    5.467076
Sn    0.000000    5.468781    5.467076
Sn    5.468781    0.000000    5.467076
Sn    5.468781    5.468781    5.467076
 S    1.281948    1.323882    1.412703
 S    4.186833    4.144898    1.412703
 S    4.058273    1.452443    4.054373
 S    1.410508    4.016338    4.054373
 S    1.452443    1.410508    6.879780
 S    4.016338    4.058273    6.879780
 S    4.144898    1.281948    9.521449
 S    1.323882    4.186833    9.521449
